%Mem=16GB
%Nprocshared=10
%chk=3_#_opt_pm6_MMFF.chk
# opt pm6

Smiles:Cc1ccccc1O

0 1
 C  2.168578 0.477960 -0.051748
 C  0.679678 0.290519 -0.035849
 C  -0.176520 1.388514 -0.194903
 C  -1.562207 1.215645 -0.180321
 C  -2.106083 -0.055943 -0.006685
 C  -1.266005 -1.157644 0.152770
 C  0.117049 -0.978239 0.137260
 O  0.951769 -2.049466 0.292429
 H  2.602232 0.151085 0.898861
 H  2.614411 -0.095756 -0.870676
 H  2.439229 1.529176 -0.196521
 H  0.231281 2.387444 -0.331442
 H  -2.216502 2.074732 -0.304656
 H  -3.184792 -0.187631 0.004263
 H  -1.704237 -2.141358 0.286974
 H  0.412118 -2.849035 0.400243


