%Mem=16GB
%Nprocshared=10
%chk=3_#_opt_pm6_MMFF.chk
# opt pm6

Smiles:[2H]CC

0 1
 H  -1.295880 0.270326 0.772923
 C  -0.745176 -0.024801 -0.125211
 C  0.745176 0.024799 0.125211
 H  -1.021289 0.654351 -0.937329
 H  -1.054920 -1.036904 -0.402204
 H  1.054918 1.036905 0.402197
 H  1.021289 -0.654345 0.937334
 H  1.295881 -0.270332 -0.772920


